docs/Sample/DS_ONS_102025_RV2D11/sab10h.pwf
TITU
ONS PDPM Outubro 2025 - SABADO DIA                                              
DAGR
(AG (         D E S C R I C A O        )
  6 SUBMERCADOS DO SIN                   
(ID O (       Nome de Identificacao      )
  1   SUDESTE/CENTRO-OESTE                 
  2   SUL                                  
  3   NORDESTE                             
  4   NORTE                                
FAGR
99999
DOPC IMPR
(Op) E (Op) E (Op) E (Op) E (Op) E (Op) E (Op) E (Op) E (Op) E (Op) E
STEP L NEWT L RCVG L RMON L FILE L SUBS L CONT L NOVO L CELO L MFCT L
AREG L STPO L VLCR L PMIN L CPHS L INMN L IANG L UNPG L
99999
DCTE
(Mn) ( Val) (Mn) ( Val) (Mn) ( Val) (Mn) ( Val) (Mn) ( Val) (Mn) ( Val) 
BASE   100. DASE   100. TEPA    .01 EXST    .04 TETP     5. TBPA     5.
TLPP     1. TEPR    .01 QLST    .04 TLPR    .01 TLPQ     2. TSBZ    .01
TSBA     5. ASTP    .05 VSTP     5. TLVC    .05 TLTC    .01 TSFR  .1E-7
ZMAX   500. TLPV     .5 VDVM   200. VDVN    40. TUDC   .001 TADC    .01
PGER    30. TPST    .02 VFLD    70. ZMIN  .0001 HIST    470 LFIT     10
ACIT    100 LFCV      1 DCIT     10 VSIT     10 LPIT     50 LFLP     10
PDIT     10 LCRT    200 LPRT     60 CSTP     5. ASDC     1.
ICIT     50 DMAX      5 FDIV     2. ICMN    .05 VART     5. TSTP     32
ICMV     .5 APAS    90. CPAR    70. VAVT     2. VAVF     5. VMVF    15.
VPVT     2. VPVF     5. VPMF    10. VSVF    20. VINF     1. VSUP     1.
TLSI     0. NDIR    20. STTR     5. TRPT   100. STIR     1. BFPO     1.
LFPO     .1 TLMT     0. TLMF     0. TLMG     0. PARS    10.            
99999
DBAR
(Num)OETGb(   nome   )Gl( V)( A)( Pg)( Qg)( Qn)( Qm)(Bc  )( Pl)( Ql)( Sh)Are(Vf)M(1)(2)(3)(4)(5)(6)(7)(8)(9)(10
   10 L1 VANGRA1UNE001 5 992-335     -103.   0.   0.                     2211000                  1                
   11 L1 VANGRA2UNE001 5 984-335     -296.   0.   0.                     2211000                  1                
   12 L1 VLCBARRUHE006 5 997-343     -572.   0.   0.                     2041000                  1                
   13 L1 TLCBARRSIN000 51020-346     -53.6   0.   0.                     2041000                  1                
   14 L1 VFUNIL-UHE003 5 975-347     -101.   0.   0.                     2251000                  1                
   16 L1 VFURNASUHE008 5 989-348     -755.   0.   0.                     1891000                  1                
   17 L1 TFURNASSIN000 51012-354     -66.3   0.   0.                     1891000                  1                
   18 L1 VITUMBIUHE005 5 975-354     -983.   0.   0.                     1881000                  1                
   19 L1 TITUMBISIN000 51006-355      -91.   0.   0.                     1881000                  1                
   20 L1 VMARIMBUHE008 51034-313     -620.   0.   0.                     1881000                  1                
   21 L1 VMANSO-UHE002 5 990-372     -24.8   0.   0.                     1371000                  1                
   22 L1 VM.MORAUHE006 51017-341     -91.6   0.   0.                     1891000                  1                
   23 L1 TC.BRAVSIN000 51008-412     -51.9   0.   0.                     1491000                  1                
   24 L1 VM.MORBUHE004 5 991-339     -16.7   0.   0.                     2081000                  1                
   28 L1 VPCOLOMUHE004 51028-326     -59.1   0.   0.                     2081000                  1                
   30 L1 VSCRU19UTE000 5 998-358     -47.2   0.   0.                     2241000                  1                
   31 L1 VSCRU31UT3001 5 998-358     -14.8   0.   0.                     2241000                  1                
   32 L1 VSCRU16UTE002 51001-351     -32.2   0.   0.                     2241000                  1                
   35 L1 VCORUMBUHE003 5 984-372     -182.   0.   0.                     1481000                  1                
   36 L1 VS.MESAUHE002 5 984-417     -842.   0.   0.                     1471000                  1                
   37 L1 TS.MESASIN000 51011-422     -324.   0.   0.                     1471000                  1                
   38 L1 NGRAJA2SIN001 51009-358     -79.9   0.   0.                     2211000                  1                
   41 L1 TVITOR2SIN001 51013-424     -57.6   0.   0.                     2341000                  1                
   44 L1 NGRAJA1SIN001 51010-358     -77.3   0.   0.                     2211000                  1                
   47 L1 TVITOR1SIN001 51013-424     -61.7   0.   0.                     2341000                  1                
   48 L1 QIBIUNASIN004 5 950-329     -529.   0.   0.    86               2041000                  1                
   50 L1 QTPRETOSIN001 5 990-329     15.74   0.   0.                     2011000                  1                
   52 L  EGNA-I--RJ345 51068-403                                         2221000                  1                
   53 L1 QGNA1G-UTE000 5 974-403     -134.   0.   0.                     2221000                  1                
   54 L1 QGNA1V-UTE000 5 974-403     -199.   0.   0.                     2221000                  1                
   56 L  IIVAIP3-PR069 6 939-319                                         2011000                  1                
   57 L  IIVAIP2-PR069 6 885-319                                         201 960                  1                
   58 L  UIVAIP2-PR000 61058-319                                         201 960                  1                
   59 L  UIVAIP3-PR000 61053-319                                         2011000                  1                
   60 L  AF.IGUA-PR765 11035-315                                         2011000                  1                
   61 L  CFOZ60--PR500111076-313                                         2401000                  1                
   62 L  AIV-FZ1CAP765 11058-323                                         2011000                  1                
   63 L  AIV-FZ2CAP765 11057-323                                         2011000                  1                
   64 L  AIV-FZ3CAP765 11055-323                                         2011034                  1                
   65 L  AIVAIPO-PR765 11071-320                                         2011000                  1                
   66 L  BIVAIPA-PR525 21072-319                                         1011000                  2                
   67 L  IIVAIP1-PR069 6 883-319                            .24   0.     2011000                  1                
   68 L  UIVAIP1-PR000 61057-319                                         2011000                  1                
   69 L  AIV-IT1CAP765 11062-315                                         2011000                  1                
   70 L  AIV-IT2CAP765 11062-315                                         2011000                  1                
   71 L  AIV-IT3CAP765 11062-316                                         2011014                  1                
   72 L  AITABER-SP765 11065-324                                         2011000                  1                
   73 L  AIT-TP1CAP765 11034-319                                         2011000                  1                
   74 L  AIT-TP2CAP765 11034-318                                         2011000                  1                
   75 L  AIT-TP3CAP765 11031-319                                         2011000                  1                
   76 L  ATPRETO-SP765 11009-328                                         2011000                  1                
   77 L  CTPRETO-SP500 31067-330                                         2021000                  1                
   78 L  ETPRETO-SP345 51012-329                                         2041000                  1                
   79 L  ITPRETO-SP069 6 955-330                                         2011000                  1                
   80 L  UTPRET3-SP000 61016-330                                         2011000                  1                
   81 L  UTPRET4-SP000 6 982-329                                         2011000                  1                
   82 L  ETPRET2-SP345 51012-329                                         2041000                  1                
   84 L  GRESEN2-RJ138 51005-349                                         2251000                  1                
   85 L  CFOZ50--PR500 31073-.12                            60.   0.     2411000                  1                
   86 L1 EIBIUNA-SP345 51030-329     -2991   0.   0.                     2041000                  1                
   87 L  CRESEND-RJ500 31102-345                                         2211000                  1                
   90 L  EVIANA--ES345 51123-423                                         2341010                  1                
   91 L  NVIANT1-ES013 61119-426                                         2341010                  1                
   92 L  CSB-SM1CAP500 31156-397                                         1471000                  1                
   93 L  CSB-SM2CAP500 31176-400                                         1471000                  1                
   94 L  CSB-SM3CAP500 31175-399                                         1471000                  1                
   95 L  NVIANT2-ES013 61119-426                                         2341010                  1                
   96 L  NVIANT3-ES013 61119-426                                         2341000                  1                
   99 L  CAS-AR1-SP500 31098-298                                         2021000                  1                
  100 L  CMARIMB-MG500 31077-315                                         1881000                  1                
  101 L  CARARAQ-SP500 31085-304                                         2021000                  1                
  102 L  CP.CALD-MG500 31108-326                                         1881000                  1                
  103 L  CCAMPIN-SP500 31101-324                                         2021000                  1                
  104 L  CC.PAUL-SP500 31121-340                                         2021000                  1                
  105 L  CANGRA--RJ500 31088-343                           117.   0.     2211000                  1                
  106 L  CADRIAN-RJ500 31084-353                                         2211000                  1                
  107 L  CGRAJAU-RJ500 31083-355                                         2211000                  1                
  108 L  CS.JOSE-RJ500 31078-354                                         2211000                  1                
  110 L  UGR1T52-RJ000 61033-358                                         2211000                  1                
  112 L  CBA-IB1-PR500 31166-328                                         1011000                  2                
  113 L  CBA-IB2-PR500 31166-328                                         1011000                  2                
  114 L  CBA-IT1-PR500 31166-328                                         1011000                  2                
  115 L  CBA-IT1CAP500 31118-332                                         1011000                  2                
  116 L  GIMBTAP-RJ138 51082-370                                         2261000                  1                
  117 L  CCAMPO2-RJ500 31139-402                                         2211000                  1                
  118 L  UBANDT4-GO000 61074-385                                         1481000                  1                
  119 L  NBANDT4-GO013 61074-385                                         1481000                  1                
  120 L  EP.CALD-MG345 5 994-337                                         1891000                  1                
  121 L  UPCAT51-MG000 61061-339                                         1881000                  1                
  122 L  CIBIUNA-SP500 31096-327                                         2021000                  1                
  123 L  ECAMPIN-SP345 51017-329                                         2041000                  1                
  124 L  UCAMP51-SP000 61042-330                                         2021000                  1                
  125 L  CIB-BA1CAP500 31046-327                                         2021000                  1                
  126 L  EGUARUL-SP345 51053-331                                         2041000                  1                
  127 L  EMO-RL1-SP345 51057-328                                         2041000                  1                
  128 L  EMO-RL2-SP345 51057-328                                         2041015                  1                
  129 L  EMOGI---SP345 51056-329                                         2041000                  1                
  130 L  CIB-BA2CAP500 31046-327                                         2021000                  1                
  131 L  EM.MORA-MG345 51050-346                                         1891000                  1                
  133 L  UADRT1A-RJ000 61066-368                                         2221000                  1                
  134 L  ELCBARR-SP345 51047-346                                         2041000                  1                
  135 L  UJACT1A-RJ000 61014-361                                         2221000                  1                
  136 L  EFURNAS-MG345 51062-354                                         1891000                  1                
  137 L  UJACT2A-RJ000 61014-361                                         2221000                  1                
  138 L  EITUTIN-MG345 51094-377                                         1891000                  1                
  139 L  UADRT51-RJ000 61065-362                                         2211014                  1                
  140 L  EADRIAN-RJ345 51016-363                                         2221000                  1                
  141 L  UADRT53-RJ000 61084-366                                         2211000                  1                
  142 L  UADRT55-RJ000 61081-365                                         2211060                  1                
  143 L  UADRT2B-RJ000 61067-368                                         2221030                  1                
  144 L  EJACARE-RJ345 51039-361                                         2221000                  1                
  145 L  UADRT1B-RJ000 61066-368                                         2221000                  1                
  146 L  UADRT2A-RJ000 61066-368                                         2221000                  1                
  147 L  ECAMPOS-RJ345 51092-403                                         2221000                  1                
  148 L  UCAMPO1-RJ000 61092-405                                         2221000                  1                
  149 L  EVITORI-ES345 51119-424                                         2341000                  1                
  150 L  UVITAT1-ES000 61121-429                                         2341000                  1                
  152 L  UVITAT2-ES000 61122-429                                         2341000                  1                
  153 L  UVITAT3-ES000 61122-430                                         2341000                  1                
  154 L  NVITAT2-ES013 61122-429                                         2341000                  1                
  155 L  NVITAT3-ES013 61122-430                                         2341000                  1                
  156 D  NVITAT4-ES013 6 996  0.                                         2341000                  1                
  158 D  UVITAT4-ES000 6 996  0.                                         2341000                  1                
  159 L  NJA-R30-RJ013 61014-361                                         2221000                  1                
  160 L  NJB-R60-RJ013 6 989-361                                         2221000                  1                
  161 L  FMO-FCE-SP230 5 994-330                                         2051000                  1                
  162 L  UCAMAT1-SP000 61075-331                                         2041000                  1                
  163 L  NCAMPI1-SP013 61043-331                                         2041000                  1                
  164 L  UPCAT02-MG000 61094-335                                         1891000                  1                
  165 L  NP.CAL2-MG013 61060-335                                         1891000                  1                
  166 L  UJACT1B-RJ000 61014-361                                         2221000                  1                
  167 L  NJA-R60-RJ013 61014-361                                         2221000                  1                
  169 L GCSJOSE2-RJ138 51017-361                                         2241000                  1                
  170 L  GP.CALD-MG138 51030-336                                         1961000                  1                
  171 L  GCAMPI1-SP138 51081-331                                         2071000                  1                
  172 L  GIMBARE-RJ138 51034-363                                         2261000                  1                
  173 L GCADRIAN-RJ138 51021-367                                         2261000                  1                
  174 L GCR.LEAO-RJ138 51074-395                                         2281000                  1                
  175 L GCCAMPOS-RJ138 51010-405                                         2291000                  1                
  176 L  UCAMP54-SP000 61040-330                                         2021000                  1                
  177 L  GVITOR1-ES138 51005-429                                         2361000                  1                
  178 L GCGRAJAU-RJ138 51002-358                                         2241000                  1                
  179 L  UGR2T54-RJ000 61033-358                                         2211000                  1                
  180 L GCJACARE-RJ138 51006-361                                         2241000                  1                
  181 L  GANGDEF-RJ138 51000-343                                         2211037                  1                
  182 L  GFUNIL--RJ138 51014-349                                         2251000                  1                
  183 L  GC.PAUL-SP138 51017-343                                         2141000                  1                
  184 L GCS.CRUZ-RJ138 51012-358                                         2241000                  1                
  185 L  GANGRA--RJ138 51037-362                                         2251000                  1                
  186 L  NCAMP54-SP013 61040-330                                         2021000                  1                
  187 L  GM.MORA-MG138 51044-344                                         1951000                  1                
  189 L  UBGERT1-DF000 61205-414                                         1591000                  1                
  190 L  GP.COL--MG138 51046-331                                         2081000                  1                
  192 L  NCAMPO1-RJ013 61092-405                                         2221000                  1                
  194 L  NADRT55-RJ013 6 991-365                                         2211080                  1                
  195 L  NADRT53-RJ013 6 994-366                                         2211000                  1                
  196 L  NCAMP51-SP013 6 956-330                                         2021000                  1                
  197 L  NADRT51-RJ013 61065-362                                         2211014                  1                
  198 L  NPCALAT-MG013 6 974-339                                         1881000                  1                
  199 L  NVITAT1-ES013 61121-429                                         2341000                  1                
  200 L  UUCAMP1-RJ000 61033-406                                         2291000                  1                
  201 L  VRSIL-1UTE000 51033-406                                         2291000                  1                
  202 L  UUCAMP2-RJ000 61032-406                                         2291000                  1                
  203 L  VRSIL-2UTE000 51032-406                                         2291000                  1                
  204 L  NADRT1B-RJ013 61066-368                                         2221000                  1                
  205 L  NADRT2A-RJ013 61066-368                                         2221000                  1                
  206 L  NADRT2B-RJ013 61067-368                                         2221030                  1                
  208 L  NBGERT1-DF013 61205-414                                         1591000                  1                
  209 L  NADRT1A-RJ013 61066-368                                         2221000                  1                
  210 L  CITUMBI-MG500 31092-355                                         1881000                  1                
  211 L  UCAMPO2-RJ000 61092-405                                         2221000                  1                
  212 L  NCAMPO2-RJ013 61092-405                                         2221000                  1                
  213 L  EMARIMB-MG345 51019-328                                         1891000                  1                
  214 L  UMARIMB-MG000 61095-331                                         1881000                  1                
  216 L  EP.COL--MG345 51064-341                                         1891000                  1                
  217 L  EITUMBI-MG345 51067-362                                         1891000                  1                
  218 L  EBANDEI-GO345 51091-386                                         1481000                  1                
  219 L  EB.SUL--DF345 51124-408                                         1581000                  1                
  220 L  ECORUMB-GO345 51064-373                                         1481000                  1                
  221 L  LB.GERA-DF034 51060-414                                         160 991                  1                
  222 L  UBSULT6-DF000 61129-409                                         1581000                  1                
  223 L  UBANDT1-GO000 61073-385                                         1481000                  1                
  224 L  UBANDT2-GO000 61072-385                                         148 987                  1                
  225 L  FITUMBI-MG230 51050-363                                         1901000                  1                
  226 L  FBANDEI-GO230 51103-385                                         1491000                  1                
  227 L  FB.GERA-DF230 51130-409                                         1591000                  1                
  228 L  FB.SUL--DF230 51128-409                                         1591000                  1                
  229 L  FB.ALTO-GO230 51003-429                                         1491000                  1                
  230 L  FS.MESA-GO230 51013-420                                         1491000                  1                
  231 L  FR.VERD-GO230 51086-366                                         1491000                  1                
  232 L  NBSULT6-DF013 61129-409                                         1581000                  1                
  233 L  CSAMAMB-DF500 31181-410                                         1571000                  1                
  234 L  ESAMAMB-DF345 51007-408                                         1581000                  1                
  235 L  CS.MESA-GO500 31145-422                                         1471000                  1                
  236 L  GB.SUL--DF138 51036-413                                         1601000                  1                
  237 L  GSAMAMB-DF138 51008-412                                         1601000                  1                
  238 L  GR.VERD-GO138 51004-369                                         1531000                  1                
  239 L  GS.MESA-GO138 51046-423                                         1541000                  1                
  240 L  URVERT1-GO000 61049-370                                         1491000                  1                
  241 L  NRVERT1-GO013 61049-370                                         1491000                  1                
...
99999
DLIN
(De )d O d(Pa )NcEPM( R% )( X% )(Mvar)(Tap)(Tmn)(Tmx)(Phs)(Bc  )(Cn)(Ce)Ns(Cq)(1)(2)(3)(4)(5)(6)(7)(8)(9)(10 (U) Uop
   38       17954         3.0195         1.                     200.200.  200.                                 1   1
   44       11052             3.         1.                     200.200.  200.                                 1   1
   50        81 4          2.498         1.                     500.500.  500.                                 1   1
   52       147 1      .16 1.64627.714                          10581539  1539
   52       147 2      .16 1.646 27.71                          10581539  1539
   53        52 1          3.255        .95                     10351242  1449                                 1   1
   54        52 1         2.1898        .95                     560.672.  784.                                 1   1
   56        59 3          3.385         1.                     550.550.  550.                                 1   1
   57        58 2          3.606         1.                     550.550.  550.                                 1   1
   60        62 1     .076  1.85 927.8                          41334174  4174
   60        63 2     .076  1.85 929.1                          41334174  4174
   60        64 3     .082 1.899 954.5                          36834174  4174
   60     43810 2           .806      .9524                     16501815  1880                                 1   1
   60     43862 1           .743      .9524                     16501815  1792                                 1   1
   60     43899 3            .74      .9524                     16501729  1792                                 1   1
   60     43915 4           .746      .9524                     15721815  1880                                 1   1
   60     43921 5           .731      .9524                     15721980  2200                                 1   1
   61     43421 1     .116 1.999 245.8                          29103624  3623
   61     43422 2     .116 1.999 245.8                          29103624  3623
   61     43810 2          -.164         1.                     16501815  1880                                 1   1
   61     43862 1          -.121         1.                     16501815  1792                                 1   1
   61     43899 3          -.117         1.                     16501729  1792                                 1   1
   61     43915 4          -.123         1.                     15721815  1880                                 1   1
   61     43921 5          -.114         1.                     15721980  2200                                 1   1
   65        58 2           .823         1.                     16921861  1880                                 1   1
   65        59 3           .773         1.                     16501879  1947                                 1   1
   65        68 1           .843         1.                     16501861  2047                                 1   1
   66        68 1           -.17      1.019 .8381.053        99916501815321995                                 1   1
   67        68 1          3.649         1.                     550.550.  550.                                 1   1
   72        69 1 T   .064  1.53  760.                          41334174  4174
   72        70 2     .063  1.53 755.7                          41334174  4174
   72        71 3     .064  1.54  760.                          41334174  4174
   76        73 1 T   .072  1.75 877.5                          41334174  4174
   76        74 2     .072  1.75  873.                          41334174  4174
   76        75 3 T   .078  1.79 898.2                          41334174  4174
   76        80 3           .697         1.                     16501815  1995                                 1   1
   76        81 4          1.028         1.                     15001650  1650                                 1   1
   76     41512 5           .993         1.                     15001650  1650                                 1   1
   76     41514 6           .983         1.                     15001650  1650                                 1   1
   76     41516 7           .931         1.                     15001800  1800                                 1   1
   76     41518 1           .839         1.                     16501650  1650                                 1   1
   76     41520 2           .817         1.                     16501815  1815                                 1   1
   77        80 3           -.03      1.113  .88 1.16         7716501815321995                                 1   1
   77       104 1 T   .167  2.54 216.6                          18552337  2337
   77       598 1 T   .106 1.441 133.4                          18552252  2252
   77      3383 1     .114 1.712259.62                          27282728  2728
   77     41518 1          -.165      1.113  .88 1.16         7716501650331650                                 1   1
   77     41520 2          -.162      1.113  .88 1.16         7716501815331815                                 1   1
   78        81 4          -.107      1.084 .8591.115         7815001650321650                                 1   1
   78       449 1 T  .0742 .6448 11.34                          11841184  1392
   78       449 2 T  .0742 .6448 11.34                          11841184  1392
   78       464 3 T  .1089  .973 17.07                          912.1103  1103
   78       471 1    .0922 .8014 14.08                          11841392  1392
   78       471 2    .0922 .8014 14.08                          11841392  1392
   78       474 1     .068  .944  21.2                          12801613  1613
   78     41512 5          -.093      1.084 .8591.115         7815001650331650                                 1   1
   78     41820 1     .001  .001                                99999999  9999
   78     41823 1     .001  .001                                99999999  9999
   79        80 3          3.545         1.                     550.550.  550.                                 1   1
   82        86 1 T   .187 2.602  60.1                          12801613  1613
   82       449 3 T    .06   .63 12.84                          13501350  1350
   82       449 4 T    .06   .63 12.84                          13501350  1350
   82     41514 6          -.092      1.081 .8591.115         8215001650331650                                 1   1
   82     41516 7          -.058      1.081 .8591.115         8215001800331800                                 1   1
   82     41821 1     .001  .001                                99999999  9999
   82     41822 1     .001  .001                                99999999  9999
   84      1780 1       .7  1.78  .454                          120.120.  120.
   84      1780 2       .7  1.78  .454                          120.120.  120.
   84     11797 1      .32  .815 .2079                          122.130.  122.
   84     21797 1      .32  .815 .2079                          122.130.  122.
   84     42417 5     .004-1.667         1.                     300.359.  419.                                 1   1
   85      1103 3 T  .0058.10069 10.04                          27283377  3377
   85      1103 4 T .00564.09795  9.69                          27283377  3377
   86        48 1           .725       1.04                     10501050  1050                                 1   1
   86       474 1     .155 2.162  49.5                          12801613  1613
   86       488 1    .09481.4987 41.91                          20202390  2390
   86       488 2    .09481.4987 41.91                          20202390  2390
   86     41522 1           -.25      .9832 .8951.048       -122750.750.33750.                                 1   1
   86     41524 2          -.254      .9832 .8951.048       -122750.750.33750.                                 1   1
   86     41526 3           .236      .9832 .8951.048       -122750.900.331050                                 1   1
   87     42417 5     .121 4.833      1.055   .9  1.1        -84300.359.21419.                                 1   1
   87     42426 1          8.333         1.                     150.180.  180.                                 1   1
   87     42428 2         11.458         1.                     120.144.  144.                                 1   1
   90      2608 1          4.847      1.005                     225.270.  304.                                 1   1
   90      2618 2          4.861      1.005                     225.270.  304.                                 1   1
   90      2628 3           4.65      1.005                     225.270.  304.                                 1   1
   90      3032 1 T   .225 2.468 41.54                          747.747.  747.
   90     42441 4          3.081      1.005                     400.480.  560.                                 1   1
   91      2608 1            9.7         1.                      75. 75.   75.                                 1   1
   95      2618 2          9.773         1.                      75. 75.   75.                                 1   1
   96      2628 3           9.83         1.                      75. 75.   75.                                 1   1
   99       101 1     .198 3.098 317.5                          20002000  2000
   99       556 1     .001  .001       1.05                     99999999  9999                                 1   1
  100        20 1            .79         1.                     16201620  1620                                 1   1
  100       214 9          2.979         1.                     560.717.  717.                                 1   1
  100       535 1 T   .153 2.356 203.8                          17321732  1732
  100      3110 1    .12531.8381 160.4                          19922390  2390
  100      4598 1     .006  .097   7.4                          18552337  2337
  100      4598 2     .006  .086   7.2                          18552337  2337
  100      4598 3    .0064 .0824 7.176                          19922390  2390
  101       102 1     .156  2.46 208.5                          18552337  2337
  101       103 1      .15  2.39 202.6                          18552337  2337
  102       12151          2.911       1.05                     560.717.  717.                                 1   1
  102      1503 1     .129 1.993 167.7                          18552337  2337
  103       12451          2.946       1.05                     560.717.  717.                                 1   1
  103       17654         2.9116       1.05                     560.728.  728.                                 1   1
  103       609 1      .06  .946 76.26                          18552337  2337
  103      6609 1     .024  .368  31.7                          18552337  2337
  103      6609 2     .017  .26738.833                          24773464  3464
  104        87 1     .051  .782  66.5                          18552337  2337
  104       598 1     .075  1.15  98.9                          18552252  2252
  104       609 1     .148 2.347 193.3                          18552337  2337
  104      1503 1     .052  .792  66.5                          18552337  2337
  104      3010 1     .189 3.158 709.6                          24423464  3464
  104      3010 2     .189 3.158 709.6                          24423464  3464
  104      3383 1     .014  .205 30.35                          27282728  2728
  104      9626 1     .098  1.68  252.                          24732598  2598
  104     4166457         4.7375       1.05                     250.263.  270.                                 1   1
  104     4166659         4.9492       1.05                     250.270.  283.                                 1   1
  105        10 1           1.97      1.075                     777.777.  777.                                 1   1
  105        11 1            .95      1.075                     14771477  1477                                 1   1
  105       104 1     .093 1.456 122.5                          18552337  2337
  105      9601 1     .092 1.363 115.3                          18552337  2337
  105      9608 1 T   .101 1.518 127.8                          18552337  2337
  105     4240158          3.988       1.05                     400.400.  400.                                 1   1
  106       107 1     .033  .673 72.57                          25982598  2598
  106       108 1     .019  .389  42.1                          25982598  2598
  106       13951          1.962       1.05                     560.644.  672.                                 1   1
  106       14153          3.042       1.05                     560.672.  784.                                 1   1
  106       14255           2.93       1.05                     560.716.  716.                                 1   1
  106      9626 1     .012  .193 29.69                          24732598  2598
  107       11052          2.141       1.05                     600.720.  840.                                 1   1
  107       17954           2.15       1.05                     600.720.  840.                                 1   1
  107     4240756          2.142       1.05                     600.720.  840.                                 1   1
  107     4240858          2.114       1.05                     600.720.  840.                                 1   1
  108     4243111          2.327       1.05                     600.660.  684.                                 1   1
  108     4243212            2.3       1.05                     600.660.  684.                                 1   1
  108     4243313           2.27       1.05                     600.720.  840.                                 1   1
  108     4243414          2.288       1.05                     600.720.  840.                                 1   1
  112       895 1     .001  .001       1.05                     99999999  9999                                 1   1
  113       895 2     .001  .001       1.05                     99999999  9999                                 1   1
  114       895 1     .001  .001       1.05                     99999999  9999                                 1   1
  115      6609 1     .263  4.25  659.                          29103668  3668
  116       172 4D    .125  .722  .207                          145.145.  145.
  116       173 4     .625 3.608 1.003                          153.193.  193.
  117      4353 1     .131 2.346 348.3                          28023403  3403
  117      4353 2     .132  2.34 348.3                          28023403  3403
  119       118 4         15.049         1.                      75. 75.   75.                                 1   1
  120       12151          -.522      1.0111.009 1.11        120560.717.10717.                                 1   1
  120       126 1       .6  5.95  92.8                          776.977.  977.
  120       126 2     .606  6.02  93.8                          776.977.  977.
  120       164 2     .031 7.624       .957                     150.160.  160.                                 1   1
  120       697 1     .394  4.39 74.85                          853.1075  1075
  120     42000 1          7.754       .957                     150.160.  160.                                 1   1
  120     42002 3          8.027       .957                     150.161.  161.                                 1   1
  120     42004 4            7.2       .957                     150.150.  150.                                 1   1
  120     42006 5           4.54       .957                     225.270.  315.                                 1   1
  120     42008 6          4.556       .957                     225.270.  315.                                 1   1
  122      6609 1     .079 1.214 103.2                          18552337  2337
  122     41522 1         1.8016       1.05                     750.750.  750.                                 1   1
  122     41524 2         1.7995       1.05                     750.750.  750.                                 1   1
  122     41526 3         1.2804       1.05                     750.900.  1050                                 1   1
  123       120 1 T   .359 3.945  66.7                          853.1075  1075
  123       12451          -.528      1.042  .95 1.11        123560.717.17717.                                 1   1
  123       162 1          5.563      1.004                     149.176.  176.                                 1   1
  123       17654          -.413      1.042  .95 1.11        123560.728.17728.                                 1   1
  123     41504 2            5.6      1.004                     149.176.  176.                                 1   1
  123     41505 3         6.0166      1.004                     149.176.  181.                                 1   1
  123     41506 4         5.6033      1.004                     149.176.  181.                                 1   1
  123     41507 5           5.63      1.004                     149.194.  194.                                 1   1
  125       112 1     .308 3.958 444.8                          12992252  2252
  126        86 1     .109 1.826  51.2                          17072150  2150
  126        86 2     .109 1.824  51.2                          17072150  2150
  126       123 1     .252 2.761  46.5                          853.1075  1075
  126       442 1     .116 1.132  17.7                          776.977.  977.
  129       442 1 T   .067   .66  10.1                          776.977.  977.
  129     41660 1          2.436         1.                     500.590.  615.                                 1   1
  129     41662 2          2.339         1.                     500.590.  615.                                 1   1
  130       113 2     .308 3.958 444.8                          12992252  2252
  131        22 1          3.693         1.                     378.378.  378.                                 1   1
  131      3012 1     .038  .427 6.673                          853.1075  1075
  131     4202211          2.686         1.                     400.480.  560.                                 1   1
  131     4202413          2.526         1.                     400.480.  560.                                 1   1
  134        12 1            .89       .999                     11801180  1180                                 1   1
  134        13 1           5.34       .999                     99999999  9999                                 1   1
  134       120 1      .56  6.16 105.3                          853.1075  1075
  134       120 2      .55  6.13 107.7                          853.1075  1075
  134      3012 1     .071  .755 12.92                          853.1075  1075
  134      3012 2     .071  .755 12.79                          853.1075  1075
  136        16 1            .96         1.                     12801280  1280                                 1   1
  136        17 1           7.68         1.                     99999999  9999                                 1   1
  136       120 1 T    .44   4.3  66.6                          776.977.  977.
  136       120 2 T    .44  4.33  66.6                          776.977.  977.
  136       131 1     .358 3.383 52.96                          776.956.  956.
  136       138 1      .65  6.46 100.8                          776.977.  977.
  136       367 1 T    .22  2.18  33.4                          776.977.  977.
  136       367 2 T    .18  1.79 34.29                          11321132  1132
  136      4360 1     .456 4.944 83.45                          853.1075  853.
  138       331 1    .42234.0862 73.67                          11591159  1159
  138      9013 1     .325 3.207 58.69                          11231383  1383
...
(Flexibilizado para convergencia
 5541      5549 1          7.946         1.                     120.120.  120.                                 1   1
 5541      5552 1    .0046 -.242      1.026 .899  1.1       5541450.463.16540.                                 1   1
(Flexibilizado para convergencia
 5541      5554 3          8.295         1.                     120.103.  120.                                 1   1
 5541      5685 1    1.64211.529 23.55                          331.410.  331.
 5541      5834 2    .0464 -.629      1.026   .9  1.1       5541450.540.16630.                                 1   1
 5541      6001 1    3.267 19.67  40.2                          255.339.  339.
 5541     44149 2          13.94      .9886 .7261.117       5543100.120.21140.                                 1   1
 5542      5544 2          -.605       .996   .9  1.1       5542100.103.17120.                                 1   1
 5542      5549 1          -.496       .996   .9  1.1       5542100.120.17120.                                 1   1
 5542      5554 3          -.865       .996   .9  1.1       5542100.103.17120.                                 1   1
 5543      5547 1 T        -.985         1.                     100.103.  120.                                 1   1
 5543     44149 2            -.9         1.                     100.120.  140.                                 1   1
 5543     48155 1          .0001                                99999999  9999
 5545      5547 1 T        8.895         1.                     99999999  9999                                 1   1
 5546      5549 1          14.43         1.                     99999999  9999                                 1   1
 5550      5688 1     .003   .06 7.368                          30383582  3582
 5550      5688 2     .003   .06 7.368                          30383582  3582
 5550      6076 1          1.531        1.1                     600.642.  720.                                 1   1
 5550      6077 2          1.563        1.1                     600.642.  720.                                 1   1
 5550      6078 3          1.573        1.1                     600.642.  720.                                 1   1
 5550      6079 4          1.166        1.1                     600.642.  720.                                 1   1
 5551      5541 1    2.077 9.959 18.33                          233.239.  239.
 5551      5561 1      .21 1.262  5.22                          428.479.  479.
 5551      5561 2      .21 1.262  5.22                          428.479.  479.
 5551      5689 1     .039  .325 1.267                          550.693.  550.
 5551      5691 1     .304 2.138   10.                          440.611.  611.
 5551      5691 2     .263 2.255 8.568                          440.611.  611.
 5551      6076 1          -.439       1.05   .9  1.1      -5550600.642.33720.                                 1   1
 5551      6077 2          -.479       1.05   .9  1.1      -5550600.642.33720.                                 1   1
 5551      6078 3          -.477       1.05   .9  1.1      -5550600.642.33720.                                 1   1
 5551      6079 4          -.126       1.05   .9  1.1      -5550600.642.33720.                                 1   1
 5551      8038 1 T   .001  .001                                99999999  9999
 5551      8039 1     .001  .001                                99999999  9999
 5551      8266 1     .001  .001                                99999999  9999
 5551      9522 2         8.0474         1.                     150.150.  150.                                 1   1
 5551      9523 2             8.         1.                     150.150.  150.                                 1   1
 5551     45602 1           .001                                99999999  9999
 5553      5552 1 T  .6229   19.         1.                      90. 90.   90.                                 1   1
 5555      5554 3         14.855         1.                     99999999  9999                                 1   1
 5556      5541 1      .02   .21 6.193                          99999999  9999
 5556      5557 1          12.32         1.                     110.110.  110.                                 1   1
 5556      5558 1          12.32         1.                     110.110.  110.                                 1   1
 5556      6447 1          12.32         1.                     110.110.  110.                                 1   1
 5556      6448 1          12.32         1.                     110.110.  110.                                 1   1
 5561      5562 3          12.85      .9848  .73 1.12      -5562100.108.21120.                                 1   1
 5561      5562 4          12.85      .9848  .73 1.12      -5562100.108.21120.                                 1   1
 5561      5563 1          13.27      .9767  .73 1.12      -5563100.108.21120.                                 1   1
 5561      5563 2           13.4      .9767  .73 1.12      -5563100.108.21120.                                 1   1
 5565      5564 5         13.655         1.                     99999999  9999                                 1   1
 5568      5566 3          7.655         1.                     99999999  9999                                 1   1
 5568      5593 3          -.905         1.                     100.103.  120.                                 1   1
 5569      5567 4          8.095         1.                     99999999  9999                                 1   1
 5569      5593 4         -1.505         1.                     100.103.  120.                                 1   1
 5570      6640 1     .134  1.92 279.9                          19921992  1992
 5570      6743 1    .0427 .5094 52.38                          21482685  2148
 5570      7190 5     .207 3.478 798.2                          39364681  4681
 5570      8167 1    .0145 .2118 19.62                          425.604.  425.
 5570      8198 2     .092 1.285118.03                          16622095  1662
 5570     42344 1      .02 4.078         1.                     300.300.  360.                                 1   1
 5570     43952 5     .001  .001                                15152046  150.
 5570     43953 6     .001  .001                                15151559  150.
 5570     44084 5     .044 7.737         1.                     300.360.  300.                                 1   1
 5571      5037 3       .6   5.7 22.34                          421.560.  421.
 5571      5573 2          25.94      1.009 .9221.117      -5573 50. 50.11 60.                                 1   1
 5571      5573 3          70.65      1.009 .9271.133      -5573 33. 33.33120.                                 1   1
 5571      5573 4          69.69      1.009 .9271.133      -5573 33. 33.33 40.                                 1   1
 5571      5671 1 T   3.05 16.24 28.24                          199.251.   60.
 5571      5681 2     3.14 16.73 29.38                          199.251.  251.
 5571     42344 1      .08 -.582      .9589 .859 1.17       5571300.300.25360.                                 1   1
 5571     44084 5    .0898-4.082         1. .9451.287       5571300.360.25300.                                 1   1
 5571     46183 1D     .68 4.395  3.19                          285.394.  285.
 5572      6300 5       .2  2.68 271.9                          19921992  1992
 5573     47160 1 T        .0001                                99999999  9999
 5574      5510 6      .22  2.97 301.5                          17322165  1500
 5576      5570 4     .259 3.678 540.8                          19921992  1992
 5577      6300 2     .153 2.272 327.6                          17322165  2165
 5579      5587 4          30.69         1.                     99999999  9999                                 1   1
 5580      5500 8      .14  2.21 327.4                          22012676  2676
 5580      5500 9      .14  2.22 327.5                          22012676  2676
 5580      5540 2 T   .138  2.07 302.5                          25982598  2598
 5580      5588 1          2.513        1.1                     300.324.  378.                                 1   1
 5580      5645 1   .05483.68432 67.16                          20302557  2557
 5580     43955 1     .001  .001                                16891689  1689
 5580     43957 2     .001  .001                                19922598  2598
 5581      5531 1    1.682 9.938 18.63                          266.336.  336.
 5581      5582 1          .0875      1.022                     200.200.  200.                                 1   1
 5581      5587 4          28.71      .9795   .9  1.1      -5583 50. 52.17 60.                                 1   1
 5581      5588 1           .437      .9658 .859 1.17       5581300.324.27378.                                 1   1
 5581      5589 1          31.86      .9795   .9  1.1      -5583 50. 52.17 60.                                 1   1
 5581      5617 5          28.95      .9795   .9  1.1      -5583 50. 52.17 60.                                 1   1
 5581     44719 6     .19515.065      .9795   .9  1.1      -5583100.120.17100.                                 1   1
 5582      5586 1           3.36         1.                     200.200.  200.                                 1   1
 5582     44074 1           6.77         1.                     200.200.  300.                                 1   1
 5583      5587 4          -1.29         1.                      50. 52.   60.                                 1   1
 5583      5617 5          -2.25         1.                      50. 52.   60.                                 1   1
 5583     44719 6     .135-1.165         1.                     100.120.  100.                                 1   1
 5585      5588 1 T        11.22         1.                     99999999  9999                                 1   1
 5589      5583 1          15.26         1.                      50. 52.   60.                                 1   1
 5589      5584 1          -1.36         1.                     99999999  9999                                 1   1
 5590      5594 1      .09 1.483 188.3                          19922425  2425
 5590      5597 2          1.561        1.1                     450.464.  540.                                 1   1
 5590      5598 1          1.198        1.1                     600.618.  720.                                 1   1
 5590      6400 1     .191 2.355 233.8                          19922425  2425
 5590      6400 2 T   .131 1.927 282.3                          25982598  2598
 5590     43954 1     .001  .001                                16891689  1689
 5590     43956 2     .001  .001                                19922598  2598
 5591      5564 5         14.255        .98 .7261.117      -5593100.103.21120.                                 1   1
 5591      5568 3         13.925        .98 .7261.117      -5593100.103.21120.                                 1   1
 5591      5569 4         14.255        .98 .7261.117      -5593100.103.21120.                                 1   1
 5591      5597 2          -.096      1.005  .85 1.05       5591450.464.17540.                                 1   1
 5591      5598 1          -.057      1.005  .85 1.05       5591600.618.17720.                                 1   1
 5591      5601 1     1.94 10.88 18.76                          233.294.  294.
 5591      5601 2   2.136710.626 19.94                          247.309.  309.
 5591      5696 1    .0851 .6503  2.49                          150.150.  150.
 5591      8298 1     .001  .001                                99999999  9999
 5591     44076 1            .35         1.                     400.400.  400.                                 1   1
 5591     44079 1            .35         1.                     400.400.  400.                                 1   1
 5592      5597 2         26.519         1.                     99999999  9999                                 1   1
 5593      5564 5          -.995         1.                     100.103.  120.                                 1   1
 5593      8040 1 T         .001                                99999999  9999
 5593     44646 1   9.113615.659 .3405                           44. 55.   55.
 5594      5595 1          2.065       1.05                     828.994.  1240                                 1   1
 5596     44079 1           2.72         1.                     400.400.  400.                                 1   1
 5599      5598 1          1.073         1.                     99999999  9999                                 1   1
 5601      5603 1           36.7      .9768   .9  1.1      -5603 33. 34.17 40.                                 1   1
 5601      5603 2           36.7      .9768   .9  1.1      -5603 33. 34.17 40.                                 1   1
 5601      5603 3         36.757      .9768   .9  1.1      -5603 33. 40.17 46.                                 1   1
 5601      5604 3          8.425         1.                     100.120.  140.                                 1   1
 5601      5606 1          7.924         1.                     100.103.  120.                                 1   1
 5601      5608 2           8.07         1.                     100.103.  120.                                 1   1
 5602      5604 3          -.835      1.019   .9  1.1       5602100.120.17140.                                 1   1
 5602      5606 1          -.497      1.019   .9  1.1       5602100.103.17120.                                 1   1
 5602      5608 2            -.6      1.019   .9  1.1       5602100.103.17120.                                 1   1
 5602      7239 1      .79  2.24   .59                          124.154.  154.
 5602      8042 1 T         .001                                99999999  9999
 5605      5608 2          14.87         1.                     99999999  9999                                 1   1
 5607      5606 1         14.412         1.                     99999999  9999                                 1   1
 5610      5609 1     .0193.1764         1.                     425.425.  425.                                 1   1
 5611      5613 1     .548 12.63      .9831 .7261.117      -5613100.100.21428.                                 1   1
 5611      5613 2     .274 13.01      .9831 .7261.117      -5613100.100.21 54.                                 1   1
 5611      8319 4D   3.70919.343 34.77                          291.291.  291.
 5611      9524 5          13.33         1.                      90. 90.   90.                                 1   1
 5613     47068 1 T        .0001                                99999999  9999
 5616      5615 3          13.92         1.                     99999999  9999                                 1   1
 5618      5617 5          31.05         1.                     99999999  9999                                 1   1
 5620      5622 1    1.015 7.218 .2936                          99999999  9999
 5621      5623 3          13.19      .9557 .7261.117      -5623100.100.21 50.                                 1   1
...